# generated using pymatgen
data_YAlCo4
_symmetry_space_group_name_H-M   'P 1'
_cell_length_a   5.04585868
_cell_length_b   5.04585868
_cell_length_c   3.87132600
_cell_angle_alpha   90.00000000
_cell_angle_beta   90.00000000
_cell_angle_gamma   120.00000895
_symmetry_Int_Tables_number   1
_chemical_formula_structural   YAlCo4
_chemical_formula_sum   'Y1 Al1 Co4'
_cell_volume   85.36119834
_cell_formula_units_Z   1
loop_
 _symmetry_equiv_pos_site_id
 _symmetry_equiv_pos_as_xyz
  1  'x, y, z'
loop_
 _atom_site_type_symbol
 _atom_site_label
 _atom_site_symmetry_multiplicity
 _atom_site_fract_x
 _atom_site_fract_y
 _atom_site_fract_z
 _atom_site_occupancy
  Y  Y0  1  0.66666700  0.33333300  0.00000000  1
  Al  Al1  1  0.00000000  0.00000000  0.00000000  1
  Co  Co2  1  0.33333300  0.66666700  0.00000000  1
  Co  Co3  1  0.65987100  0.82993600  0.50000000  1
  Co  Co4  1  0.17006400  0.82993600  0.50000000  1
  Co  Co5  1  0.17006400  0.34012900  0.50000000  1
